Circuit: * C:\Documents and Settings\caleb\My Documents\opencalc\trunk\simulation\battery charger and monitor.asc

Direct Newton iteration for .op point succeeded.

Date: Fri Sep 09 07:04:27 2011
Total elapsed time: 0.125 seconds.

tnom = 27
temp = 27
method = modified trap
totiter = 2458
traniter = 2425
tranpoints = 1155
accept = 1125
rejected = 30
matrix size = 32
fillins = 4
solver = Normal
Matrix Compiler1: 2.18 KB object code size  1.6/1.3/[0.5]
Matrix Compiler2: off  [0.8]/1.2/0.9


